data/IEEE118_PNNL.raw
1,   100.00, 33, 0, 0, 60.00     / PSS(R)E-33.7    MON, APR 10 2017   7:08


     1,'RIVERSDE  V2', 138.0000,2,   1,   1,   1,1.01505,  22.8857,1.10000,0.90000,1.10000,0.90000
     2,'POKAGON   V2', 138.0000,1,   1,   1,   1,1.02139,  23.0064,1.10000,0.90000,1.10000,0.90000
     3,'HICKRYCK  V2', 138.0000,1,   1,   1,   1,1.02196,  23.2788,1.10000,0.90000,1.10000,0.90000
     4,'NWCARLSL  V2', 138.0000,2,   1,   1,   1,1.03783,  25.0560,1.10000,0.90000,1.10000,0.90000
     5,'OLIVE     V2', 138.0000,1,   1,   1,   1,1.03925,  25.2814,1.10000,0.90000,1.10000,0.90000
     6,'KANKAKEE  V2', 138.0000,2,   1,   1,   1,1.02952,  23.9344,1.10000,0.90000,1.10000,0.90000
     7,'JACKSNRD  V2', 138.0000,1,   1,   1,   1,1.02883,  23.6600,1.10000,0.90000,1.10000,0.90000
     8,'OLIVE     V1', 345.0000,2,   1,   1,   1,1.04154,  27.8247,1.10000,0.90000,1.10000,0.90000
     9,'BEQUINE   V1', 345.0000,1,   1,   1,   1,1.05649,  31.5585,1.10000,0.90000,1.10000,0.90000
    10,'BREED     V1', 345.0000,2,   1,   1,   1,1.05000,  35.5881,1.10000,0.90000,1.10000,0.90000
    11,'SOUTHBND  V2', 138.0000,1,   1,   1,   1,1.02958,  23.7327,1.10000,0.90000,1.10000,0.90000
    12,'TWINBRCH  V2', 138.0000,2,   1,   1,   1,1.02827,  23.3718,1.10000,0.90000,1.10000,0.90000
    13,'CONCORD   V2', 138.0000,1,   1,   1,   1,1.02840,  23.1808,1.10000,0.90000,1.10000,0.90000
    14,'GOSHENJT  V2', 138.0000,1,   1,   1,   1,1.03292,  23.1441,1.10000,0.90000,1.10000,0.90000
    15,'FTWAYNE   V2', 138.0000,2,   1,   1,   1,1.04352,  23.3007,1.10000,0.90000,1.10000,0.90000
    16,'N. E.     V2', 138.0000,1,   1,   1,   1,1.03472,  23.3732,1.10000,0.90000,1.10000,0.90000
    17,'SORENSON  V2', 138.0000,1,   1,   1,   1,1.05570,  24.4531,1.10000,0.90000,1.10000,0.90000
    18,'MCKINLEY  V2', 138.0000,2,   1,   1,   1,1.04373,  23.5313,1.10000,0.90000,1.10000,0.90000
    19,'LINCOLN   V2', 138.0000,2,   1,   1,   1,1.04234,  23.2532,1.10000,0.90000,1.10000,0.90000
    20,'ADAMS     V2', 138.0000,1,   1,   1,   1,1.04253,  23.6668,1.10000,0.90000,1.10000,0.90000
    21,'JAY       V2', 138.0000,1,   1,   1,   1,1.04310,  24.3551,1.10000,0.90000,1.10000,0.90000
    22,'RANDOLPH  V2', 138.0000,1,   1,   1,   1,1.04647,  25.4570,1.10000,0.90000,1.10000,0.90000
    23,'COLLCRNR  V2', 138.0000,1,   1,   1,   1,1.05271,  27.6544,1.10000,0.90000,1.10000,0.90000
    24,'TRENTON   V2', 138.0000,2,   1,   1,   1,1.05257,  27.1222,1.10000,0.90000,1.10000,0.90000
    25,'TANNRSCK  V2', 138.0000,2,   1,   1,   1,1.05214,  31.6162,1.10000,0.90000,1.10000,0.90000
    26,'TANNRSCK  V1', 345.0000,2,   1,   1,   1,1.01500,  32.5384,1.10000,0.90000,1.10000,0.90000
    27,'MADISON   V2', 138.0000,2,   1,   1,   1,1.04139,  25.4716,1.10000,0.90000,1.10000,0.90000
    28,'MULLIN    V2', 138.0000,1,   1,   1,   1,1.03828,  24.6910,1.10000,0.90000,1.10000,0.90000
    29,'GRANT     V2', 138.0000,1,   1,   1,   1,1.03712,  24.2132,1.10000,0.90000,1.10000,0.90000
    30,'SORENSON  V1', 345.0000,1,   1,   1,   1,1.03045,  26.7607,1.10000,0.90000,1.10000,0.90000
    31,'DEERCRK   V2', 138.0000,2,   1,   1,   1,1.03771,  24.2400,1.10000,0.90000,1.10000,0.90000
    32,'DELAWARE  V2', 138.0000,2,   1,   1,   1,1.04214,  25.0935,1.10000,0.90000,1.10000,0.90000
    33,'HAVILAND  V2', 138.0000,1,   1,   1,   1,1.04644,  22.9746,1.10000,0.90000,1.10000,0.90000
    34,'ROCKHILL  V2', 138.0000,2,   1,   1,   1,1.05230,  23.1919,1.10000,0.90000,1.10000,0.90000
    35,'WESTLIMA  V2', 138.0000,1,   1,   1,   1,1.05020,  23.0179,1.10000,0.90000,1.10000,0.90000
    36,'STERLING  V2', 138.0000,2,   1,   1,   1,1.04992,  23.0188,1.10000,0.90000,1.10000,0.90000
    37,'EASTLIMA  V2', 138.0000,1,   1,   1,   1,1.05474,  23.3898,1.10000,0.90000,1.10000,0.90000
    38,'EASTLIMA  V1', 345.0000,1,   1,   1,   1,1.01321,  25.5718,1.10000,0.90000,1.10000,0.90000
    39,'NWLIBRTY  V2', 138.0000,1,   1,   1,   1,1.03476,  22.1136,1.10000,0.90000,1.10000,0.90000
    40,'WEST END  V2', 138.0000,2,   1,   1,   1,1.02742,  21.7486,1.10000,0.90000,1.10000,0.90000
    41,'S.TIFFIN  V2', 138.0000,1,   1,   1,   1,1.02285,  21.5756,1.10000,0.90000,1.10000,0.90000
    42,'HOWARD    V2', 138.0000,2,   1,   1,   1,1.02006,  22.3247,1.10000,0.90000,1.10000,0.90000
    43,'S.KENTON  V2', 138.0000,1,   1,   1,   1,1.05000,  22.9827,1.10000,0.90000,1.10000,0.90000
    44,'WMVERNON  V2', 138.0000,1,   1,   1,   1,1.04598,  23.8268,1.10000,0.90000,1.10000,0.90000
    45,'N.NEWARK  V2', 138.0000,1,   1,   1,   1,1.03613,  24.6356,1.10000,0.90000,1.10000,0.90000
    46,'W.LANCST  V2', 138.0000,2,   1,   1,   1,1.03583,  25.7211,1.10000,0.90000,1.10000,0.90000
    47,'CROOKSVL  V2', 138.0000,1,   1,   1,   1,1.02960,  27.0662,1.10000,0.90000,1.10000,0.90000
    48,'ZANESVLL  V2', 138.0000,1,   1,   1,   1,1.03116,  26.9463,1.10000,0.90000,1.10000,0.90000
    49,'PHILO     V2', 138.0000,2,   1,   1,   1,1.02500,  27.6739,1.10000,0.90000,1.10000,0.90000
    50,'WCAMBRDG  V2', 138.0000,1,   1,   1,   1,1.00722,  26.9671,1.10000,0.90000,1.10000,0.90000
    51,'NEWCMRST  V2', 138.0000,1,   1,   1,   1,0.98248,  26.1152,1.10000,0.90000,1.10000,0.90000
    52,'SCOSHOCT  V2', 138.0000,1,   1,   1,   1,0.97536,  25.7954,1.10000,0.90000,1.10000,0.90000
    53,'WOOSTER   V2', 138.0000,1,   1,   1,   1,0.96057,  25.6565,1.10000,0.90000,1.10000,0.90000
    54,'TORREY    V2', 138.0000,2,   1,   1,   1,0.95500,  26.3188,1.10000,0.90000,1.10000,0.90000
    55,'WAGENHLS  V2', 138.0000,2,   1,   1,   1,0.95754,  26.0217,1.10000,0.90000,1.10000,0.90000
    56,'SUNNYSDE  V2', 138.0000,2,   1,   1,   1,0.95845,  26.1284,1.10000,0.90000,1.10000,0.90000
    57,'WNWPHIL1  V2', 138.0000,1,   1,   1,   1,0.97850,  26.2850,1.10000,0.90000,1.10000,0.90000
    58,'WNWPHIL2  V2', 138.0000,1,   1,   1,   1,0.97163,  25.9755,1.10000,0.90000,1.10000,0.90000
    59,'TIDD      V2', 138.0000,2,   1,   1,   1,0.98500,  27.3078,1.10000,0.90000,1.10000,0.90000
    60,'SWKAMMER  V2', 138.0000,1,   1,   1,   1,0.99511,  28.6731,1.10000,0.90000,1.10000,0.90000
    61,'W.KAMMER  V2', 138.0000,2,   1,   1,   1,0.99500,  29.0717,1.10000,0.90000,1.10000,0.90000
    62,'NATRIUM   V2', 138.0000,2,   1,   1,   1,1.00248,  28.7251,1.10000,0.90000,1.10000,0.90000
    63,'TIDD      V1', 345.0000,1,   1,   1,   1,0.97211,  28.4526,1.10000,0.90000,1.10000,0.90000
    64,'KAMMER    V1', 345.0000,1,   1,   1,   1,0.98598,  29.0053,1.10000,0.90000,1.10000,0.90000
    65,'MUSKNGUM  V1', 345.0000,2,   1,   1,   1,1.00500,  29.7440,1.10000,0.90000,1.10000,0.90000
    66,'MUSKNGUM  V2', 138.0000,2,   1,   1,   1,1.05000,  30.3380,1.10000,0.90000,1.10000,0.90000
    67,'SUMMERFL  V2', 138.0000,1,   1,   1,   1,1.02616,  29.2232,1.10000,0.90000,1.10000,0.90000
    68,'SPORN     V1', 345.0000,1,   1,   1,   1,0.99827,  28.6903,1.10000,0.90000,1.10000,0.90000
    69,'SPORN     V2', 138.0000,3,   1,   1,   1,1.03500,  30.0000,1.10000,0.90000,1.10000,0.90000
    70,'PORTSMTH  V2', 138.0000,2,   1,   1,   1,1.03244,  26.1198,1.10000,0.90000,1.10000,0.90000
    71,'NPORTSMT  V2', 138.0000,1,   1,   1,   1,1.03584,  26.0801,1.10000,0.90000,1.10000,0.90000
    72,'HILLSBRO  V2', 138.0000,2,   1,   1,   1,1.04711,  26.2457,1.10000,0.90000,1.10000,0.90000
    73,'SARGENTS  V2', 138.0000,2,   1,   1,   1,1.03588,  26.0094,1.10000,0.90000,1.10000,0.90000
    74,'BELLEFNT  V2', 138.0000,2,   1,   1,   1,1.02121,  24.9947,1.10000,0.90000,1.10000,0.90000
    75,'STHPOINT  V2', 138.0000,1,   1,   1,   1,1.02078,  25.3681,1.10000,0.90000,1.10000,0.90000
    76,'DARRAH    V2', 138.0000,2,   1,   1,   1,1.00631,  23.9414,1.10000,0.90000,1.10000,0.90000
    77,'TURNER    V2', 138.0000,2,   1,   1,   1,1.02783,  24.6669,1.10000,0.90000,1.10000,0.90000
    78,'CHEMICAL  V2', 138.0000,1,   1,   1,   1,1.02734,  24.5069,1.10000,0.90000,1.10000,0.90000
    79,'CAPITLHL  V2', 138.0000,1,   1,   1,   1,1.03121,  24.5991,1.10000,0.90000,1.10000,0.90000
    80,'CABINCRK  V2', 138.0000,2,   1,   1,   1,1.04000,  25.6102,1.10000,0.90000,1.10000,0.90000
    81,'KANAWHA   V1', 345.0000,1,   1,   1,   1,0.99188,  27.5391,1.10000,0.90000,1.10000,0.90000
    82,'LOGAN     V2', 138.0000,1,   1,   1,   1,1.01705,  20.1917,1.10000,0.90000,1.10000,0.90000
    83,'SPRIGG    V2', 138.0000,1,   1,   1,   1,1.01234,  18.7157,1.10000,0.90000,1.10000,0.90000
    84,'BETSYLNE  V2', 138.0000,1,   1,   1,   1,0.99866,  16.7211,1.10000,0.90000,1.10000,0.90000
    85,'BEAVERCK  V2', 138.0000,1,   1,   1,   1,0.99488,  15.9014,1.10000,0.90000,1.10000,0.90000
    86,'HAZARD    V2', 138.0000,1,   1,   1,   1,0.99271,  15.1818,1.10000,0.90000,1.10000,0.90000
    87,'PINEVLLE  V3', 161.0000,1,   1,   1,   1,0.99271,  15.1824,1.10000,0.90000,1.10000,0.90000
    88,'FREMONT   V2', 138.0000,1,   1,   1,   1,0.99133,  14.6488,1.10000,0.90000,1.10000,0.90000
    89,'CLINCHRV  V2', 138.0000,1,   1,   1,   1,0.99385,  14.6798,1.10000,0.90000,1.10000,0.90000
    90,'HOLSTON   V2', 138.0000,1,   1,   1,   1,0.97843,  12.6769,1.10000,0.90000,1.10000,0.90000
    91,'HOLSTONT  V2', 138.0000,1,   1,   1,   1,0.98619,  13.7119,1.10000,0.90000,1.10000,0.90000
    92,'SALTVLLE  V2', 138.0000,1,   1,   1,   1,0.99725,  15.6617,1.10000,0.90000,1.10000,0.90000
    93,'TAZEWELL  V2', 138.0000,1,   1,   1,   1,1.00167,  17.1642,1.10000,0.90000,1.10000,0.90000
    94,'SWITCHBK  V2', 138.0000,1,   1,   1,   1,1.00828,  18.6635,1.10000,0.90000,1.10000,0.90000
    95,'CALDWELL  V2', 138.0000,1,   1,   1,   1,1.00720,  19.2366,1.10000,0.90000,1.10000,0.90000
    96,'BAILEYSV  V2', 138.0000,1,   1,   1,   1,1.01668,  20.4282,1.10000,0.90000,1.10000,0.90000
    97,'SUNDIAL   V2', 138.0000,1,   1,   1,   1,1.02565,  22.8138,1.10000,0.90000,1.10000,0.90000
    98,'BRADLEY   V2', 138.0000,1,   1,   1,   1,1.02784,  22.7396,1.10000,0.90000,1.10000,0.90000
    99,'HINTON    V2', 138.0000,2,   1,   1,   1,1.02205,  20.5556,1.10000,0.90000,1.10000,0.90000
   100,'GLEN LYN  V2', 138.0000,2,   1,   1,   1,1.01700,  19.4337,1.10000,0.90000,1.10000,0.90000
   101,'WYTHE     V2', 138.0000,1,   1,   1,   1,1.00365,  17.4157,1.10000,0.90000,1.10000,0.90000
   102,'SMYTHE    V2', 138.0000,1,   1,   1,   1,0.99939,  16.1946,1.10000,0.90000,1.10000,0.90000
   103,'CLAYTOR   V2', 138.0000,2,   1,   1,   1,1.01000,  18.0767,1.10000,0.90000,1.10000,0.90000
   104,'HANCOCK   V2', 138.0000,2,   1,   1,   1,1.00325,  16.7287,1.10000,0.90000,1.10000,0.90000
   105,'ROANOKE   V2', 138.0000,2,   1,   1,   1,1.00336,  16.2426,1.10000,0.90000,1.10000,0.90000
   106,'CLOVERDL  V2', 138.0000,1,   1,   1,   1,1.00255,  16.0808,1.10000,0.90000,1.10000,0.90000
   107,'REUSENS   V2', 138.0000,2,   1,   1,   1,1.00125,  14.8687,1.10000,0.90000,1.10000,0.90000
   108,'BLAINE    V2', 138.0000,1,   1,   1,   1,0.99544,  16.0444,1.10000,0.90000,1.10000,0.90000
   109,'FRANKLIN  V2', 138.0000,1,   1,   1,   1,0.99207,  15.9820,1.10000,0.90000,1.10000,0.90000
   110,'FIELDALE  V2', 138.0000,2,   1,   1,   1,0.98423,  15.9810,1.10000,0.90000,1.10000,0.90000
   111,'DANRIVER  V2', 138.0000,2,   1,   1,   1,0.98000,  17.2650,1.10000,0.90000,1.10000,0.90000
   112,'DANVILLE  V2', 138.0000,2,   1,   1,   1,0.97395,  14.8161,1.10000,0.90000,1.10000,0.90000
   113,'DEER CRK  V2', 138.0000,2,   1,   1,   1,1.05455,  24.4837,1.10000,0.90000,1.10000,0.90000
   114,'WMEDFORD  V2', 138.0000,1,   1,   1,   1,1.04011,  25.0228,1.10000,0.90000,1.10000,0.90000
   115,'MEDFORD   V2', 138.0000,1,   1,   1,   1,1.03989,  25.0308,1.10000,0.90000,1.10000,0.90000
   116,'KYGERCRK  V2', 138.0000,2,   1,   1,   1,0.99797,  28.4908,1.10000,0.90000,1.10000,0.90000
   117,'COREY     V2', 138.0000,1,   1,   1,   1,1.02267,  22.6948,1.10000,0.90000,1.10000,0.90000
   118,'WHUNTNGD  V2', 138.0000,1,   1,   1,   1,1.01131,  24.5090,1.10000,0.90000,1.10000,0.90000
0 / END OF BUS DATA, BEGIN LOAD DATA
     1,'1 ',1,   1,   1,    23.746,    12.572,     0.000,     0.000,     0.000,     0.000,   1,1,0
     2,'1 ',1,   1,   1,     9.312,     4.191,     0.000,     0.000,     0.000,     0.000,   1,1,0
     3,'1 ',1,   1,   1,    18.159,     4.656,     0.000,     0.000,     0.000,     0.000,   1,1,0
     4,'1 ',1,   1,   1,    18.159,     5.587,     0.000,     0.000,     0.000,     0.000,   1,1,0
     6,'1 ',1,   1,   1,    24.212,    10.243,     0.000,     0.000,     0.000,     0.000,   1,1,0
     7,'1 ',1,   1,   1,     8.847,     0.931,     0.000,     0.000,     0.000,     0.000,   1,1,0
     8,'1 ',1,   1,   1,    13.037,     0.000,     0.000,     0.000,     0.000,     0.000,   1,1,0
    11,'1 ',1,   1,   1,    32.593,    10.709,     0.000,     0.000,     0.000,     0.000,   1,1,0
    12,'1 ',1,   1,   1,    21.884,     4.656,     0.000,     0.000,     0.000,     0.000,   1,1,0
    13,'1 ',1,   1,   1,    15.831,     7.450,     0.000,     0.000,     0.000,     0.000,   1,1,0
    14,'1 ',1,   1,   1,     6.519,     0.466,     0.000,     0.000,     0.000,     0.000,   1,1,0
    15,'1 ',1,   1,   1,    41.905,    13.968,     0.000,     0.000,     0.000,     0.000,   1,1,0
    16,'1 ',1,   1,   1,    11.640,     4.656,     0.000,     0.000,     0.000,     0.000,   1,1,0
    17,'1 ',1,   1,   1,     5.122,     1.397,     0.000,     0.000,     0.000,     0.000,   1,1,0
    18,'1 ',1,   1,   1,    27.937,    15.831,     0.000,     0.000,     0.000,     0.000,   1,1,0
    19,'1 ',1,   1,   1,    20.953,    11.640,     0.000,     0.000,     0.000,     0.000,   1,1,0
    20,'1 ',1,   1,   1,     8.381,     1.397,     0.000,     0.000,     0.000,     0.000,   1,1,0
    21,'1 ',1,   1,   1,     6.519,     3.725,     0.000,     0.000,     0.000,     0.000,   1,1,0
    22,'1 ',1,   1,   1,     4.656,     2.328,     0.000,     0.000,     0.000,     0.000,   1,1,0
    23,'1 ',1,   1,   1,     3.259,     1.397,     0.000,     0.000,     0.000,     0.000,   1,1,0
    24,'1 ',1,   1,   1,     6.053,     0.000,     0.000,     0.000,     0.000,     0.000,   1,1,0
    27,'1 ',1,   1,   1,    33.058,     6.053,     0.000,     0.000,     0.000,     0.000,   1,1,0
    28,'1 ',1,   1,   1,     7.915,     3.259,     0.000,     0.000,     0.000,     0.000,   1,1,0
    29,'1 ',1,   1,   1,    11.175,     1.862,     0.000,     0.000,     0.000,     0.000,   1,1,0
    31,'1 ',1,   1,   1,    20.021,    12.572,     0.000,     0.000,     0.000,     0.000,   1,1,0
    32,'1 ',1,   1,   1,    27.471,    10.709,     0.000,     0.000,     0.000,     0.000,   1,1,0
    33,'1 ',1,   1,   1,    10.709,     4.191,     0.000,     0.000,     0.000,     0.000,   1,1,0
    34,'1 ',1,   1,   1,    27.471,    12.106,     0.000,     0.000,     0.000,     0.000,   1,1,0
    35,'1 ',1,   1,   1,    15.365,     4.191,     0.000,     0.000,     0.000,     0.000,   1,1,0
    36,'1 ',1,   1,   1,    14.434,     7.915,     0.000,     0.000,     0.000,     0.000,   1,1,0
    39,'1 ',1,   1,   1,    12.592,     5.130,     0.000,     0.000,     0.000,     0.000,   1,1,0
    40,'1 ',1,   1,   1,    30.781,    10.727,     0.000,     0.000,     0.000,     0.000,   1,1,0
    41,'1 ',1,   1,   1,    17.256,     4.664,     0.000,     0.000,     0.000,     0.000,   1,1,0
    42,'1 ',1,   1,   1,    44.773,    10.727,     0.000,     0.000,     0.000,     0.000,   1,1,0
    43,'1 ',1,   1,   1,     8.395,     3.265,     0.000,     0.000,     0.000,     0.000,   1,1,0
    44,'1 ',1,   1,   1,     7.462,     3.731,     0.000,     0.000,     0.000,     0.000,   1,1,0
    45,'1 ',1,   1,   1,    24.718,    10.260,     0.000,     0.000,     0.000,     0.000,   1,1,0
    46,'1 ',1,   1,   1,    13.059,     4.664,     0.000,     0.000,     0.000,     0.000,   1,1,0
    47,'1 ',1,   1,   1,    15.857,     0.000,     0.000,     0.000,     0.000,     0.000,   1,1,0
    48,'1 ',1,   1,   1,     9.328,     5.130,     0.000,     0.000,     0.000,     0.000,   1,1,0
    49,'1 ',1,   1,   1,    40.575,    13.991,     0.000,     0.000,     0.000,     0.000,   1,1,0
    50,'1 ',1,   1,   1,     7.929,     1.866,     0.000,     0.000,     0.000,     0.000,   1,1,0
    51,'1 ',1,   1,   1,     7.929,     3.731,     0.000,     0.000,     0.000,     0.000,   1,1,0
    52,'1 ',1,   1,   1,     8.395,     2.332,     0.000,     0.000,     0.000,     0.000,   1,1,0
    53,'1 ',1,   1,   1,    10.727,     5.130,     0.000,     0.000,     0.000,     0.000,   1,1,0
    54,'1 ',1,   1,   1,    52.701,    14.924,     0.000,     0.000,     0.000,     0.000,   1,1,0
    55,'1 ',1,   1,   1,    29.382,    10.260,     0.000,     0.000,     0.000,     0.000,   1,1,0
    56,'1 ',1,   1,   1,    39.176,     8.395,     0.000,     0.000,     0.000,     0.000,   1,1,0
    57,'1 ',1,   1,   1,     5.597,     1.399,     0.000,     0.000,     0.000,     0.000,   1,1,0
    58,'1 ',1,   1,   1,     5.597,     1.399,     0.000,     0.000,     0.000,     0.000,   1,1,0
    59,'1 ',1,   1,   1,   129.190,    52.701,     0.000,     0.000,     0.000,     0.000,   1,1,0
    60,'1 ',1,   1,   1,    36.378,     1.399,     0.000,     0.000,     0.000,     0.000,   1,1,0
    62,'1 ',1,   1,   1,    35.911,     6.529,     0.000,     0.000,     0.000,     0.000,   1,1,0
    66,'1 ',1,   1,   1,    18.189,     8.395,     0.000,     0.000,     0.000,     0.000,   1,1,0
    67,'1 ',1,   1,   1,    13.059,     3.265,     0.000,     0.000,     0.000,     0.000,   1,1,0
    70,'1 ',1,   1,   1,    30.781,     9.328,     0.000,     0.000,     0.000,     0.000,   1,1,0
    72,'1 ',1,   1,   1,     5.597,     0.000,     0.000,     0.000,     0.000,     0.000,   1,1,0
    73,'1 ',1,   1,   1,     2.798,     0.000,     0.000,     0.000,     0.000,     0.000,   1,1,0
    74,'1 ',1,   1,   1,    31.714,    12.592,     0.000,     0.000,     0.000,     0.000,   1,1,0
    75,'1 ',1,   1,   1,    21.920,     5.130,     0.000,     0.000,     0.000,     0.000,   1,1,0
    76,'1 ',1,   1,   1,    31.652,    16.757,     0.000,     0.000,     0.000,     0.000,   1,1,0
    77,'1 ',1,   1,   1,    28.393,    13.033,     0.000,     0.000,     0.000,     0.000,   1,1,0
    78,'1 ',1,   1,   1,    33.048,    12.102,     0.000,     0.000,     0.000,     0.000,   1,1,0
    79,'1 ',1,   1,   1,    18.153,    14.895,     0.000,     0.000,     0.000,     0.000,   1,1,0
    80,'1 ',1,   1,   1,    60.510,    12.102,     0.000,     0.000,     0.000,     0.000,   1,1,0
    82,'1 ',1,   1,   1,    25.135,    12.568,     0.000,     0.000,     0.000,     0.000,   1,1,0
    83,'1 ',1,   1,   1,     9.309,     4.655,     0.000,     0.000,     0.000,     0.000,   1,1,0
    84,'1 ',1,   1,   1,     5.120,     3.258,     0.000,     0.000,     0.000,     0.000,   1,1,0
    85,'1 ',1,   1,   1,    11.171,     6.982,     0.000,     0.000,     0.000,     0.000,   1,1,0
    86,'1 ',1,   1,   1,     9.775,     4.655,     0.000,     0.000,     0.000,     0.000,   1,1,0
    88,'1 ',1,   1,   1,    22.342,     4.655,     0.000,     0.000,     0.000,     0.000,   1,1,0
    90,'1 ',1,   1,   1,    75.871,    19.550,     0.000,     0.000,     0.000,     0.000,   1,1,0
    91,'1 ',1,   1,   1,     4.655,     0.000,     0.000,     0.000,     0.000,     0.000,   1,1,0
    92,'1 ',1,   1,   1,    30.255,     4.655,     0.000,     0.000,     0.000,     0.000,   1,1,0
    93,'1 ',1,   1,   1,     5.586,     3.258,     0.000,     0.000,     0.000,     0.000,   1,1,0
    94,'1 ',1,   1,   1,    13.964,     7.447,     0.000,     0.000,     0.000,     0.000,   1,1,0
    95,'1 ',1,   1,   1,    19.550,    14.429,     0.000,     0.000,     0.000,     0.000,   1,1,0
    96,'1 ',1,   1,   1,    17.688,     6.982,     0.000,     0.000,     0.000,     0.000,   1,1,0
    97,'1 ',1,   1,   1,     6.982,     4.189,     0.000,     0.000,     0.000,     0.000,   1,1,0
    98,'1 ',1,   1,   1,    15.826,     3.724,     0.000,     0.000,     0.000,     0.000,   1,1,0
    99,'1 ',1,   1,   1,    19.550,     0.000,     0.000,     0.000,     0.000,     0.000,   1,1,0
   100,'1 ',1,   1,   1,    17.222,     8.378,     0.000,     0.000,     0.000,     0.000,   1,1,0
   101,'1 ',1,   1,   1,    10.240,     6.982,     0.000,     0.000,     0.000,     0.000,   1,1,0
   102,'1 ',1,   1,   1,     2.327,     1.396,     0.000,     0.000,     0.000,     0.000,   1,1,0
   103,'1 ',1,   1,   1,    10.706,     7.447,     0.000,     0.000,     0.000,     0.000,   1,1,0
   104,'1 ',1,   1,   1,    17.688,    11.637,     0.000,     0.000,     0.000,     0.000,   1,1,0
   105,'1 ',1,   1,   1,    14.429,    12.102,     0.000,     0.000,     0.000,     0.000,   1,1,0
   106,'1 ',1,   1,   1,    20.015,     7.447,     0.000,     0.000,     0.000,     0.000,   1,1,0
   107,'1 ',1,   1,   1,    23.273,     5.586,     0.000,     0.000,     0.000,     0.000,   1,1,0
   108,'1 ',1,   1,   1,     0.931,     0.465,     0.000,     0.000,     0.000,     0.000,   1,1,0
   109,'1 ',1,   1,   1,     3.724,     1.396,     0.000,     0.000,     0.000,     0.000,   1,1,0
   110,'1 ',1,   1,   1,    18.153,    13.964,     0.000,     0.000,     0.000,     0.000,   1,1,0
   112,'1 ',1,   1,   1,    31.652,     6.051,     0.000,     0.000,     0.000,     0.000,   1,1,0
   113,'1 ',1,   1,   1,     2.793,     0.000,     0.000,     0.000,     0.000,     0.000,   1,1,0
   114,'1 ',1,   1,   1,     3.724,     1.396,     0.000,     0.000,     0.000,     0.000,   1,1,0
   115,'1 ',1,   1,   1,    10.240,     3.258,     0.000,     0.000,     0.000,     0.000,   1,1,0
   116,'1 ',1,   1,   1,    85.646,     0.000,     0.000,     0.000,     0.000,     0.000,   1,1,0
   117,'1 ',1,   1,   1,     9.309,     3.724,     0.000,     0.000,     0.000,     0.000,   1,1,0
   118,'1 ',1,   1,   1,    15.360,     6.982,     0.000,     0.000,     0.000,     0.000,   1,1,0
0 / END OF LOAD DATA, BEGIN FIXED SHUNT DATA
0 / END OF FIXED SHUNT DATA, BEGIN GENERATOR DATA
     1,'1 ',     0.000,    -5.000,    15.000,    -5.000,0.95500,     0,   100.000, 0.00000E+0, 1.80000E-1, 0.00000E+0, 0.00000E+0,1.00000,1,  100.0,   100.000,     0.000,   1,1.0000
     4,'1 ',     0.000,     0.000,   300.000,  -300.000,0.99800,     0,   100.000, 0.00000E+0, 1.80000E-1, 0.00000E+0, 0.00000E+0,1.00000,0,  100.0,   100.000,     5.000,   1,1.0000
     6,'1 ',     0.000,     0.000,    50.000,   -13.000,0.99000,     0,   100.000, 0.00000E+0, 1.80000E-1, 0.00000E+0, 0.00000E+0,1.00000,0,  100.0,   100.000,     5.000,   1,1.0000
     8,'1 ',     0.000,     0.000,   300.000,  -300.000,1.01500,     0,   100.000, 0.00000E+0, 1.80000E-1, 0.00000E+0, 0.00000E+0,1.00000,0,  100.0,   100.000,     5.000,   1,1.0000
    10,'1 ',   239.540,   -75.952,   200.000,  -147.000,1.05000,     0,   550.000, 0.00000E+0, 1.80000E-1, 0.00000E+0, 0.00000E+0,1.00000,1,  100.0,   550.000,   150.000,   1,1.0000
    12,'1 ',     0.000,     0.000,   120.000,   -35.000,0.99000,     0,   100.000, 0.00000E+0, 1.80000E-1, 0.00000E+0, 0.00000E+0,1.00000,0,  100.0,   185.000,   100.000,   1,1.0000
    15,'1 ',     0.000,     0.000,    30.000,   -10.000,0.97000,     0,   100.000, 0.00000E+0, 1.80000E-1, 0.00000E+0, 0.00000E+0,1.00000,0,  100.0,   100.000,    10.000,   1,1.0000
    18,'1 ',     0.000,     0.000,    50.000,   -16.000,0.97300,     0,   100.000, 0.00000E+0, 1.80000E-1, 0.00000E+0, 0.00000E+0,1.00000,0,  100.0,   100.000,    25.000,   1,1.0000
    19,'1 ',     0.000,     0.000,    24.000,    -8.000,0.96200,     0,   100.000, 0.00000E+0, 1.80000E-1, 0.00000E+0, 0.00000E+0,1.00000,0,  100.0,   100.000,     5.000,   1,1.0000
    24,'1 ',     0.000,     0.000,   300.000,  -300.000,0.99200,     0,   100.000, 0.00000E+0, 1.80000E-1, 0.00000E+0, 0.00000E+0,1.00000,0,  100.0,   100.000,     5.000,   1,1.0000
    25,'1 ',   117.110,   -47.000,   140.000,   -47.000,1.05000,     0,   320.000, 0.00000E+0, 1.80000E-1, 0.00000E+0, 0.00000E+0,1.00000,1,  100.0,   320.000,   100.000,   1,1.0000
    26,'1 ',   167.140,   -55.353,  1000.000, -1000.000,1.01500,     0,   414.000, 0.00000E+0, 1.80000E-1, 0.00000E+0, 0.00000E+0,1.00000,1,  100.0,   414.000,   100.000,   1,1.0000
    27,'1 ',     0.000,     0.000,   300.000,  -300.000,0.96800,     0,   100.000, 0.00000E+0, 1.80000E-1, 0.00000E+0, 0.00000E+0,1.00000,0,  100.0,   100.000,     8.000,   1,1.0000
    31,'1 ',     0.000,     0.000,   300.000,  -300.000,0.96700,     0,   100.000, 0.00000E+0, 1.80000E-1, 0.00000E+0, 0.00000E+0,1.00000,0,  100.0,   107.000,     8.000,   1,1.0000
    32,'1 ',     0.000,     0.000,    42.000,   -14.000,0.96300,     0,   100.000, 0.00000E+0, 1.80000E-1, 0.00000E+0, 0.00000E+0,1.00000,0,  100.0,   100.000,    25.000,   1,1.0000
    34,'1 ',     0.000,     0.000,    24.000,    -8.000,0.98400,     0,   100.000, 0.00000E+0, 1.80000E-1, 0.00000E+0, 0.00000E+0,1.00000,0,  100.0,   100.000,     8.000,   1,1.0000
    36,'1 ',     0.000,     0.000,    24.000,    -8.000,0.98000,     0,   100.000, 0.00000E+0, 1.80000E-1, 0.00000E+0, 0.00000E+0,1.00000,0,  100.0,   100.000,    25.000,   1,1.0000
    40,'1 ',     0.000,     0.000,   300.000,  -300.000,0.97000,     0,   100.000, 0.00000E+0, 1.80000E-1, 0.00000E+0, 0.00000E+0,1.00000,0,  100.0,   100.000,     8.000,   1,1.0000
    42,'1 ',     0.000,     0.000,   300.000,  -300.000,0.98500,     0,   100.000, 0.00000E+0, 1.80000E-1, 0.00000E+0, 0.00000E+0,1.00000,0,  100.0,   100.000,     8.000,   1,1.0000
    46,'1 ',     0.000,     0.000,   100.000,  -100.000,1.00500,     0,   100.000, 0.00000E+0, 1.80000E-1, 0.00000E+0, 0.00000E+0,1.00000,0,  100.0,   119.000,    25.000,   1,1.0000
    49,'1 ',   108.590,   -18.168,   210.000,   -85.000,1.02500,     0,   304.000, 0.00000E+0, 1.80000E-1, 0.00000E+0, 0.00000E+0,1.00000,1,  100.0,   304.000,    50.000,   1,1.0000
    54,'1 ',    50.000,   -97.107,   300.000,  -300.000,0.95500,     0,   148.000, 0.00000E+0, 1.80000E-1, 0.00000E+0, 0.00000E+0,1.00000,1,  100.0,   148.000,    50.000,   1,1.0000
    55,'1 ',     0.000,     0.000,    23.000,    -8.000,0.95200,     0,   100.000, 0.00000E+0, 1.80000E-1, 0.00000E+0, 0.00000E+0,1.00000,0,  100.0,   100.000,    25.000,   1,1.0000
    56,'1 ',     0.000,     0.000,    15.000,    -8.000,0.95400,     0,   100.000, 0.00000E+0, 1.80000E-1, 0.00000E+0, 0.00000E+0,1.00000,0,  100.0,   100.000,    25.000,   1,1.0000
    59,'1 ',    82.510,    -1.246,   180.000,   -60.000,0.98500,     0,   255.000, 0.00000E+0, 1.80000E-1, 0.00000E+0, 0.00000E+0,1.00000,1,  100.0,   255.000,    50.000,   1,1.0000
    61,'1 ',    85.170,   -55.413,   300.000,  -100.000,0.99500,     0,   260.000, 0.00000E+0, 1.80000E-1, 0.00000E+0, 0.00000E+0,1.00000,1,  100.0,   260.000,    50.000,   1,1.0000
    62,'1 ',     0.000,     0.000,    20.000,   -20.000,0.99800,     0,   100.000, 0.00000E+0, 1.80000E-1, 0.00000E+0, 0.00000E+0,1.00000,0,  100.0,   100.000,    25.000,   1,1.0000
    65,'1 ',   208.130,    48.263,   200.000,   -67.000,1.00500,     0,   500.000, 0.00000E+0, 1.80000E-1, 0.00000E+0, 0.00000E+0,1.00000,1,  100.0,   491.000,   100.000,   1,1.0000
    66,'1 ',   208.660,     6.016,   200.000,   -67.000,1.05000,     0,   500.000, 0.00000E+0, 1.80000E-1, 0.00000E+0, 0.00000E+0,1.00000,1,  100.0,   492.000,   100.000,   1,1.0000
    69,'1 ',   315.182,  -154.187,   300.000,  -300.000,1.03500,     0,   810.000, 0.00000E+0, 1.80000E-1, 0.00000E+0, 0.00000E+0,1.00000,1,  100.0,   805.200,    80.000,   1,1.0000
    70,'1 ',     0.000,     0.000,    32.000,   -10.000,0.98400,     0,   100.000, 0.00000E+0, 1.80000E-1, 0.00000E+0, 0.00000E+0,1.00000,0,  100.0,   100.000,    30.000,   1,1.0000
    72,'1 ',     0.000,     0.000,   100.000,  -100.000,0.98000,     0,   100.000, 0.00000E+0, 1.80000E-1, 0.00000E+0, 0.00000E+0,1.00000,0,  100.0,   100.000,    10.000,   1,1.0000
    73,'1 ',     0.000,     0.000,   100.000,  -100.000,0.99100,     0,   100.000, 0.00000E+0, 1.80000E-1, 0.00000E+0, 0.00000E+0,1.00000,0,  100.0,   100.000,     5.000,   1,1.0000
    74,'1 ',     0.000,     0.000,     9.000,    -6.000,0.95800,     0,   100.000, 0.00000E+0, 1.80000E-1, 0.00000E+0, 0.00000E+0,1.00000,0,  100.0,   100.000,     5.000,   1,1.0000
    76,'1 ',     0.000,     0.000,    23.000,    -8.000,0.94300,     0,   100.000, 0.00000E+0, 1.80000E-1, 0.00000E+0, 0.00000E+0,1.00000,0,  100.0,   100.000,    25.000,   1,1.0000
    77,'1 ',     0.000,     0.000,    70.000,   -20.000,1.00600,     0,   100.000, 0.00000E+0, 1.80000E-1, 0.00000E+0, 0.00000E+0,1.00000,0,  100.0,   100.000,    25.000,   1,1.0000
    80,'1 ',   253.910,   -17.702,   280.000,  -165.000,1.04000,     0,   600.000, 0.00000E+0, 1.80000E-1, 0.00000E+0, 0.00000E+0,1.00000,1,  100.0,   577.000,   150.000,   1,1.0000
    99,'1 ',     0.000,     0.000,   100.000,  -100.000,1.01000,     0,   100.000, 0.00000E+0, 1.80000E-1, 0.00000E+0, 0.00000E+0,1.00000,0,  100.0,   100.000,   100.000,   1,1.0000
   100,'1 ',   134.140,     7.500,   155.000,   -50.000,1.01700,     0,   352.000, 0.00000E+0, 1.80000E-1, 0.00000E+0, 0.00000E+0,1.00000,1,  100.0,   352.000,   100.000,   1,1.0000
   103,'1 ',    21.290,     7.384,    40.000,   -15.000,1.01000,     0,   140.000, 0.00000E+0, 1.80000E-1, 0.00000E+0, 0.00000E+0,1.00000,1,  100.0,   140.000,     8.000,   1,1.0000
   104,'1 ',     0.000,     0.000,    23.000,    -8.000,0.97100,     0,   100.000, 0.00000E+0, 1.80000E-1, 0.00000E+0, 0.00000E+0,1.00000,0,  100.0,   100.000,    25.000,   1,1.0000
   105,'1 ',     0.000,     0.000,    23.000,    -8.000,0.96500,     0,   100.000, 0.00000E+0, 1.80000E-1, 0.00000E+0, 0.00000E+0,1.00000,0,  100.0,   100.000,    25.000,   1,1.0000
   107,'1 ',     0.000,     0.000,   200.000,  -200.000,0.95200,     0,   100.000, 0.00000E+0, 1.80000E-1, 0.00000E+0, 0.00000E+0,1.00000,0,  100.0,   100.000,     8.000,   1,1.0000
   110,'1 ',     0.000,     0.000,    23.000,    -8.000,0.97300,     0,   100.000, 0.00000E+0, 1.80000E-1, 0.00000E+0, 0.00000E+0,1.00000,0,  100.0,   100.000,    25.000,   1,1.0000
   111,'1 ',    25.000,   -13.411,  1000.000,  -100.000,0.98000,     0,   136.000, 0.00000E+0, 1.80000E-1, 0.00000E+0, 0.00000E+0,1.00000,1,  100.0,   136.000,    25.000,   1,1.0000
   112,'1 ',     0.000,     0.000,  1000.000,  -100.000,0.97500,     0,   100.000, 0.00000E+0, 1.80000E-1, 0.00000E+0, 0.00000E+0,1.00000,0,  100.0,   100.000,    25.000,   1,1.0000
   113,'1 ',     0.000,     0.000,   200.000,  -100.000,0.99300,     0,   100.000, 0.00000E+0, 1.80000E-1, 0.00000E+0, 0.00000E+0,1.00000,0,  100.0,   100.000,    25.000,   1,1.0000
   116,'1 ',     0.000,     0.000,  1000.000, -1000.000,1.00500,     0,   100.000, 0.00000E+0, 1.80000E-1, 0.00000E+0, 0.00000E+0,1.00000,0,  100.0,   100.000,    25.000,   1,1.0000
0 / END OF GENERATOR DATA, BEGIN BRANCH DATA
     1,     2,'1 ', 3.03000E-2, 9.99000E-2,   0.02540,   42.12,   54.75,    0.00,  0.00000,  0.00000,  0.00000,  0.00000,1,1,   0.00,   1,1.0000
     1,     3,'1 ', 1.29000E-2, 4.24000E-2,   0.01082,   44.58,   57.95,    0.00,  0.00000,  0.00000,  0.00000,  0.00000,1,1,   0.00,   1,1.0000
     2,    12,'1 ', 1.87000E-2, 6.16000E-2,   0.01572,   56.91,   73.98,    0.00,  0.00000,  0.00000,  0.00000,  0.00000,1,1,   0.00,   1,1.0000
     3,     5,'1 ', 2.41000E-2, 1.08000E-1,   0.02840,   73.46,   95.50,    0.00,  0.00000,  0.00000,  0.00000,  0.00000,1,1,   0.00,   1,1.0000
     3,    12,'1 ', 4.84000E-2, 1.60000E-1,   0.04060,   20.00,   26.00,    0.00,  0.00000,  0.00000,  0.00000,  0.00000,1,1,   0.00,   1,1.0000
     4,     5,'1 ', 1.76000E-3, 7.98000E-3,   0.00210,   85.18,  110.74,    0.00,  0.00000,  0.00000,  0.00000,  0.00000,1,1,   0.00,   1,1.0000
     4,    11,'1 ', 2.09000E-2, 6.88000E-2,   0.01748,   59.77,   77.70,    0.00,  0.00000,  0.00000,  0.00000,  0.00000,1,1,   0.00,   1,1.0000
     5,     6,'1 ', 1.19000E-2, 5.40000E-2,   0.01426,   87.16,  113.31,    0.00,  0.00000,  0.00000,  0.00000,  0.00000,1,1,   0.00,   1,1.0000
     5,    11,'1 ', 2.03000E-2, 6.82000E-2,   0.01738,   85.47,  111.11,    0.00,  0.00000,  0.00000,  0.00000,  0.00000,1,1,   0.00,   1,1.0000
     6,     7,'1 ', 4.59000E-3, 2.08000E-2,   0.00550,   47.74,   62.07,    0.00,  0.00000,  0.00000,  0.00000,  0.00000,1,1,   0.00,   1,1.0000
     7,    12,'1 ', 8.62000E-3, 3.40000E-2,   0.00874,   40.67,   52.87,    0.00,  0.00000,  0.00000,  0.00000,  0.00000,1,1,   0.00,   1,1.0000
     8,     9,'1 ', 2.44000E-3, 3.05000E-2,   0.80000,  491.64,  639.13,    0.00,  0.00000,  0.00000,  0.00000,  0.00000,1,1,   0.00,   1,1.0000
     8,    30,'1 ', 4.31000E-3, 5.04000E-2,   0.51400,  348.89,  453.56,    0.00,  0.00000,  0.00000,  0.00000,  0.00000,1,1,   0.00,   1,1.0000
     9,    10,'1 ', 2.58000E-3, 3.22000E-2,   0.80000,  437.92,  569.30,    0.00,  0.00000,  0.00000,  0.00000,  0.00000,1,1,   0.00,   1,1.0000
    11,    12,'1 ', 5.95000E-3, 1.96000E-2,   0.00502,   63.20,   82.16,    0.00,  0.00000,  0.00000,  0.00000,  0.00000,1,1,   0.00,   1,1.0000
    11,    13,'1 ', 2.22500E-2, 7.31000E-2,   0.01876,   57.93,   75.32,    0.00,  0.00000,  0.00000,  0.00000,  0.00000,1,1,   0.00,   1,1.0000
    12,    14,'1 ', 2.15000E-2, 7.07000E-2,   0.01816,   70.00,   91.00,    0.00,  0.00000,  0.00000,  0.00000,  0.00000,1,1,   0.00,   1,1.0000
    12,    16,'1 ', 2.12000E-2, 8.34000E-2,   0.02140,   94.77,  123.21,    0.00,  0.00000,  0.00000,  0.00000,  0.00000,1,1,   0.00,   1,1.0000
    12,   117,'1 ', 3.29000E-2, 1.40000E-1,   0.03580,   20.00,   26.00,    0.00,  0.00000,  0.00000,  0.00000,  0.00000,1,1,   0.00,   1,1.0000
    13,    15,'1 ', 7.44000E-2, 2.44400E-1,   0.06268,   87.45,  113.68,    0.00,  0.00000,  0.00000,  0.00000,  0.00000,1,1,   0.00,   1,1.0000
    14,    15,'1 ', 5.95000E-2, 1.95000E-1,   0.05020,  109.68,  142.58,    0.00,  0.00000,  0.00000,  0.00000,  0.00000,1,1,   0.00,   1,1.0000
    15,    17,'1 ', 1.32000E-2, 4.37000E-2,   0.04440,  186.49,  242.44,    0.00,  0.00000,  0.00000,  0.00000,  0.00000,1,1,   0.00,   1,1.0000
    15,    19,'1 ', 1.20000E-2, 3.94000E-2,   0.01010,   45.77,   59.50,    0.00,  0.00000,  0.00000,  0.00000,  0.00000,1,1,   0.00,   1,1.0000
    15,    33,'1 ', 3.80000E-2, 1.24400E-1,   0.03194,   52.75,   68.57,    0.00,  0.00000,  0.00000,  0.00000,  0.00000,1,1,   0.00,   1,1.0000
    16,    17,'1 ', 4.54000E-2, 1.80100E-1,   0.04660,  151.26,  196.64,    0.00,  0.00000,  0.00000,  0.00000,  0.00000,1,1,   0.00,   1,1.0000
    17,    18,'1 ', 1.23000E-2, 5.05000E-2,   0.01298,   78.93,  102.61,    0.00,  0.00000,  0.00000,  0.00000,  0.00000,1,1,   0.00,   1,1.0000
    17,    31,'1 ', 4.74000E-2, 1.56300E-1,   0.03990,   50.59,   65.77,    0.00,  0.00000,  0.00000,  0.00000,  0.00000,1,1,   0.00,   1,1.0000
    17,   113,'1 ', 9.13000E-3, 3.01000E-2,   0.00768,   50.92,   66.20,    0.00,  0.00000,  0.00000,  0.00000,  0.00000,1,1,   0.00,   1,1.0000
    18,    19,'1 ', 1.11900E-2, 4.93000E-2,   0.01142,   49.58,   64.45,    0.00,  0.00000,  0.00000,  0.00000,  0.00000,1,1,   0.00,   1,1.0000
    19,    20,'1 ', 2.52000E-2, 1.17000E-1,   0.02980,   39.16,   50.91,    0.00,  0.00000,  0.00000,  0.00000,  0.00000,1,1,   0.00,   1,1.0000
    19,    34,'1 ', 7.52000E-2, 2.47000E-1,   0.06320,   53.66,   69.76,    0.00,  0.00000,  0.00000,  0.00000,  0.00000,1,1,   0.00,   1,1.0000
    20,    21,'1 ', 1.83000E-2, 8.49000E-2,   0.02160,   51.78,   67.32,    0.00,  0.00000,  0.00000,  0.00000,  0.00000,1,1,   0.00,   1,1.0000
    21,    22,'1 ', 2.09000E-2, 9.70000E-2,   0.02460,   35.36,   45.96,    0.00,  0.00000,  0.00000,  0.00000,  0.00000,1,1,   0.00,   1,1.0000
    22,    23,'1 ', 3.42000E-2, 1.59000E-1,   0.04040,   40.43,   52.56,    0.00,  0.00000,  0.00000,  0.00000,  0.00000,1,1,   0.00,   1,1.0000
    23,    24,'1 ', 1.35000E-2, 4.92000E-2,   0.04980,   71.13,   92.47,    0.00,  0.00000,  0.00000,  0.00000,  0.00000,1,1,   0.00,   1,1.0000
    23,    25,'1 ', 1.56000E-2, 8.00000E-2,   0.08640,  181.29,  235.68,    0.00,  0.00000,  0.00000,  0.00000,  0.00000,1,1,   0.00,   1,1.0000
    23,    32,'1 ', 3.17000E-2, 1.15300E-1,   0.11730,   79.25,  103.02,    0.00,  0.00000,  0.00000,  0.00000,  0.00000,1,1,   0.00,   1,1.0000
    24,    70,'1 ', 2.21000E-3, 4.11500E-1,   0.10198,   43.50,   56.54,    0.00,  0.00000,  0.00000,  0.00000,  0.00000,1,1,   0.00,   1,1.0000
    24,    72,'1 ', 4.88000E-2, 1.96000E-1,   0.04880,   29.62,   38.50,    0.00,  0.00000,  0.00000,  0.00000,  0.00000,1,1,   0.00,   1,1.0000
    25,    27,'1 ', 3.18000E-2, 1.63000E-1,   0.17640,  109.99,  142.99,    0.00,  0.00000,  0.00000,  0.00000,  0.00000,1,1,   0.00,   1,1.0000
    26,    30,'1 ', 7.99000E-3, 8.60000E-2,   0.90800,  239.27,  311.05,    0.00,  0.00000,  0.00000,  0.00000,  0.00000,1,1,   0.00,   1,1.0000
    27,    28,'1 ', 1.91300E-2, 8.55000E-2,   0.02160,   29.21,   37.97,    0.00,  0.00000,  0.00000,  0.00000,  0.00000,1,1,   0.00,   1,1.0000
    27,    32,'1 ', 2.29000E-2, 7.55000E-2,   0.01926,   38.42,   49.95,    0.00,  0.00000,  0.00000,  0.00000,  0.00000,1,1,   0.00,   1,1.0000
    27,   115,'1 ', 1.64000E-2, 7.41000E-2,   0.01972,   21.37,   27.78,    0.00,  0.00000,  0.00000,  0.00000,  0.00000,1,1,   0.00,   1,1.0000
    28,    29,'1 ', 2.37000E-2, 9.43000E-2,   0.02380,   20.00,   26.00,    0.00,  0.00000,  0.00000,  0.00000,  0.00000,1,1,   0.00,   1,1.0000
    29,    31,'1 ', 1.08000E-2, 3.31000E-2,   0.00830,   20.00,   26.00,    0.00,  0.00000,  0.00000,  0.00000,  0.00000,1,1,   0.00,   1,1.0000
    30,    38,'1 ', 4.64000E-3, 5.40000E-2,   0.42200,  113.16,  147.11,    0.00,  0.00000,  0.00000,  0.00000,  0.00000,1,1,   0.00,   1,1.0000
    31,    32,'1 ', 2.98000E-2, 9.85000E-2,   0.02510,   29.87,   38.83,    0.00,  0.00000,  0.00000,  0.00000,  0.00000,1,1,   0.00,   1,1.0000
    32,   113,'1 ', 6.15000E-2, 2.03000E-1,   0.05180,   54.43,   70.76,    0.00,  0.00000,  0.00000,  0.00000,  0.00000,1,1,   0.00,   1,1.0000
    32,   114,'1 ', 1.35000E-2, 6.12000E-2,   0.01628,   20.00,   26.00,    0.00,  0.00000,  0.00000,  0.00000,  0.00000,1,1,   0.00,   1,1.0000
    33,    37,'1 ', 4.15000E-2, 1.42000E-1,   0.03660,   50.16,   65.21,    0.00,  0.00000,  0.00000,  0.00000,  0.00000,1,1,   0.00,   1,1.0000
    34,    36,'1 ', 8.71000E-3, 2.68000E-2,   0.00568,   27.41,   35.63,    0.00,  0.00000,  0.00000,  0.00000,  0.00000,1,1,   0.00,   1,1.0000
    34,    37,'1 ', 2.56000E-3, 9.40000E-3,   0.00984,   86.82,  112.86,    0.00,  0.00000,  0.00000,  0.00000,  0.00000,1,1,   0.00,   1,1.0000
    34,    43,'1 ', 4.13000E-2, 1.68100E-1,   0.04226,   20.00,   26.00,    0.00,  0.00000,  0.00000,  0.00000,  0.00000,1,1,   0.00,   1,1.0000
    35,    36,'1 ', 2.24000E-3, 1.02000E-2,   0.00268,   46.08,   59.90,    0.00,  0.00000,  0.00000,  0.00000,  0.00000,1,1,   0.00,   1,1.0000
    35,    37,'1 ', 1.10000E-2, 4.97000E-2,   0.01318,   71.71,   93.22,    0.00,  0.00000,  0.00000,  0.00000,  0.00000,1,1,   0.00,   1,1.0000
    37,    39,'1 ', 3.21000E-2, 1.06000E-1,   0.02700,   58.35,   75.85,    0.00,  0.00000,  0.00000,  0.00000,  0.00000,1,1,   0.00,   1,1.0000
    37,    40,'1 ', 5.93000E-2, 1.68000E-1,   0.04200,   40.95,   53.23,    0.00,  0.00000,  0.00000,  0.00000,  0.00000,1,1,   0.00,   1,1.0000
    38,    65,'1 ', 9.01000E-3, 9.86000E-2,   1.04600,  176.82,  229.87,    0.00,  0.00000,  0.00000,  0.00000,  0.00000,1,1,   0.00,   1,1.0000
    39,    40,'1 ', 1.84000E-2, 6.05000E-2,   0.01552,   26.56,   34.53,    0.00,  0.00000,  0.00000,  0.00000,  0.00000,1,1,   0.00,   1,1.0000
    40,    41,'1 ', 1.45000E-2, 4.87000E-2,   0.01222,   21.65,   28.15,    0.00,  0.00000,  0.00000,  0.00000,  0.00000,1,1,   0.00,   1,1.0000
    40,    42,'1 ', 5.55000E-2, 1.83000E-1,   0.04660,   20.00,   26.00,    0.00,  0.00000,  0.00000,  0.00000,  0.00000,1,1,   0.00,   1,1.0000
    41,    42,'1 ', 4.10000E-2, 1.35000E-1,   0.03440,   32.77,   42.60,    0.00,  0.00000,  0.00000,  0.00000,  0.00000,1,1,   0.00,   1,1.0000
    42,    49,'1 ', 7.15000E-2, 3.23000E-1,   0.08600,   56.37,   73.28,    0.00,  0.00000,  0.00000,  0.00000,  0.00000,1,1,   0.00,   1,1.0000
    42,    49,'2 ', 7.15000E-2, 3.23000E-1,   0.08600,   59.29,   77.08,    0.00,  0.00000,  0.00000,  0.00000,  0.00000,1,1,   0.00,   1,1.0000
    43,    44,'1 ', 6.08000E-2, 2.45400E-1,   0.06068,   36.53,   47.48,    0.00,  0.00000,  0.00000,  0.00000,  0.00000,1,1,   0.00,   1,1.0000
    44,    45,'1 ', 2.24000E-2, 9.01000E-2,   0.02240,   36.62,   47.61,    0.00,  0.00000,  0.00000,  0.00000,  0.00000,1,1,   0.00,   1,1.0000
    45,    46,'1 ', 4.00000E-2, 1.35600E-1,   0.03320,   39.30,   51.08,    0.00,  0.00000,  0.00000,  0.00000,  0.00000,1,1,   0.00,   1,1.0000
    45,    49,'1 ', 6.84000E-2, 1.86000E-1,   0.04440,   47.37,   61.58,    0.00,  0.00000,  0.00000,  0.00000,  0.00000,1,1,   0.00,   1,1.0000
    46,    47,'1 ', 3.80000E-2, 1.27000E-1,   0.03160,   33.13,   43.06,    0.00,  0.00000,  0.00000,  0.00000,  0.00000,1,1,   0.00,   1,1.0000
    46,    48,'1 ', 6.01000E-2, 1.89000E-1,   0.04720,   25.24,   32.81,    0.00,  0.00000,  0.00000,  0.00000,  0.00000,1,1,   0.00,   1,1.0000
    47,    49,'1 ', 1.91000E-2, 6.25000E-2,   0.01604,   73.63,   95.72,    0.00,  0.00000,  0.00000,  0.00000,  0.00000,1,1,   0.00,   1,1.0000
    47,    69,'1 ', 8.44000E-2, 2.77800E-1,   0.07092,   38.01,   49.41,    0.00,  0.00000,  0.00000,  0.00000,  0.00000,1,1,   0.00,   1,1.0000
    48,    49,'1 ', 1.79000E-2, 5.05000E-2,   0.01258,   45.54,   59.20,    0.00,  0.00000,  0.00000,  0.00000,  0.00000,1,1,   0.00,   1,1.0000
    49,    50,'1 ', 2.67000E-2, 7.52000E-2,   0.01874,   55.35,   71.95,    0.00,  0.00000,  0.00000,  0.00000,  0.00000,1,1,   0.00,   1,1.0000
    49,    51,'1 ', 4.86000E-2, 1.37000E-1,   0.03420,   59.67,   77.58,    0.00,  0.00000,  0.00000,  0.00000,  0.00000,1,1,   0.00,   1,1.0000
    49,    54,'1 ', 8.69000E-2, 2.91000E-1,   0.07300,   41.96,   54.55,    0.00,  0.00000,  0.00000,  0.00000,  0.00000,1,1,   0.00,   1,1.0000
    49,    54,'2 ', 7.30000E-2, 2.89000E-1,   0.07380,   43.48,   56.52,    0.00,  0.00000,  0.00000,  0.00000,  0.00000,1,1,   0.00,   1,1.0000
    49,    66,'1 ', 1.80000E-2, 9.19000E-2,   0.02480,  109.41,  142.23,    0.00,  0.00000,  0.00000,  0.00000,  0.00000,1,1,   0.00,   1,1.0000
    49,    66,'2 ', 1.80000E-2, 9.19000E-2,   0.02480,  105.09,  136.62,    0.00,  0.00000,  0.00000,  0.00000,  0.00000,1,1,   0.00,   1,1.0000
    49,    69,'1 ', 9.85000E-2, 3.24000E-1,   0.08280,   57.51,   74.76,    0.00,  0.00000,  0.00000,  0.00000,  0.00000,1,1,   0.00,   1,1.0000
    50,    57,'1 ', 4.74000E-2, 1.34000E-1,   0.03320,   43.54,   56.60,    0.00,  0.00000,  0.00000,  0.00000,  0.00000,1,1,   0.00,   1,1.0000
    51,    52,'1 ', 2.03000E-2, 5.88000E-2,   0.01396,   25.96,   33.75,    0.00,  0.00000,  0.00000,  0.00000,  0.00000,1,1,   0.00,   1,1.0000
    51,    58,'1 ', 2.55000E-2, 7.19000E-2,   0.01788,   26.44,   34.37,    0.00,  0.00000,  0.00000,  0.00000,  0.00000,1,1,   0.00,   1,1.0000
    52,    53,'1 ', 4.05000E-2, 1.63500E-1,   0.04058,   20.17,   26.22,    0.00,  0.00000,  0.00000,  0.00000,  0.00000,1,1,   0.00,   1,1.0000
    53,    54,'1 ', 2.63000E-2, 1.22000E-1,   0.03100,   20.00,   26.00,    0.00,  0.00000,  0.00000,  0.00000,  0.00000,1,1,   0.00,   1,1.0000
    54,    55,'1 ', 1.69000E-2, 7.07000E-2,   0.02020,   33.52,   43.58,    0.00,  0.00000,  0.00000,  0.00000,  0.00000,1,1,   0.00,   1,1.0000
    54,    56,'1 ', 2.75000E-3, 9.55000E-3,   0.00732,   85.24,  110.81,    0.00,  0.00000,  0.00000,  0.00000,  0.00000,1,1,   0.00,   1,1.0000
    54,    59,'1 ', 5.03000E-2, 2.29300E-1,   0.05980,   27.33,   35.53,    0.00,  0.00000,  0.00000,  0.00000,  0.00000,1,1,   0.00,   1,1.0000
    55,    56,'1 ', 4.88000E-3, 1.51000E-2,   0.00374,   21.62,   28.11,    0.00,  0.00000,  0.00000,  0.00000,  0.00000,1,1,   0.00,   1,1.0000
    55,    59,'1 ', 4.73900E-2, 2.15800E-1,   0.05646,   26.16,   34.01,    0.00,  0.00000,  0.00000,  0.00000,  0.00000,1,1,   0.00,   1,1.0000
    56,    57,'1 ', 3.43000E-2, 9.66000E-2,   0.02420,   30.47,   39.61,    0.00,  0.00000,  0.00000,  0.00000,  0.00000,1,1,   0.00,   1,1.0000
    56,    58,'1 ', 3.43000E-2, 9.66000E-2,   0.02420,   24.12,   31.36,    0.00,  0.00000,  0.00000,  0.00000,  0.00000,1,1,   0.00,   1,1.0000
    56,    59,'1 ', 8.03000E-2, 2.39000E-1,   0.05360,   26.94,   35.02,    0.00,  0.00000,  0.00000,  0.00000,  0.00000,1,1,   0.00,   1,1.0000
    56,    59,'2 ', 8.25000E-2, 2.51000E-1,   0.05690,   27.13,   35.27,    0.00,  0.00000,  0.00000,  0.00000,  0.00000,1,1,   0.00,   1,1.0000
    59,    60,'1 ', 3.17000E-2, 1.45000E-1,   0.03760,   27.45,   35.68,    0.00,  0.00000,  0.00000,  0.00000,  0.00000,1,1,   0.00,   1,1.0000
    59,    61,'1 ', 3.28000E-2, 1.50000E-1,   0.03880,   37.41,   48.63,    0.00,  0.00000,  0.00000,  0.00000,  0.00000,1,1,   0.00,   1,1.0000
    60,    61,'1 ', 2.64000E-3, 1.35000E-2,   0.01456,   87.16,  113.30,    0.00,  0.00000,  0.00000,  0.00000,  0.00000,1,1,   0.00,   1,1.0000
    60,    62,'1 ', 1.23000E-2, 5.61000E-2,   0.01468,   43.33,   56.33,    0.00,  0.00000,  0.00000,  0.00000,  0.00000,1,1,   0.00,   1,1.0000
    61,    62,'1 ', 8.24000E-3, 3.76000E-2,   0.00980,   42.20,   54.86,    0.00,  0.00000,  0.00000,  0.00000,  0.00000,1,1,   0.00,   1,1.0000
    62,    66,'1 ', 4.82000E-2, 2.18000E-1,   0.05780,   43.18,   56.13,    0.00,  0.00000,  0.00000,  0.00000,  0.00000,1,1,   0.00,   1,1.0000
    62,    67,'1 ', 2.58000E-2, 1.17000E-1,   0.03100,   42.72,   55.54,    0.00,  0.00000,  0.00000,  0.00000,  0.00000,1,1,   0.00,   1,1.0000
    63,    64,'1 ', 1.72000E-3, 2.00000E-2,   0.21600,  148.09,  192.52,    0.00,  0.00000,  0.00000,  0.00000,  0.00000,1,1,   0.00,   1,1.0000
    64,    65,'1 ', 2.69000E-3, 3.02000E-2,   0.38000,  158.29,  205.78,    0.00,  0.00000,  0.00000,  0.00000,  0.00000,1,1,   0.00,   1,1.0000
    65,    68,'1 ', 1.38000E-3, 1.60000E-2,   0.63800,  211.63,  275.12,    0.00,  0.00000,  0.00000,  0.00000,  0.00000,1,1,   0.00,   1,1.0000
    66,    67,'1 ', 2.24000E-2, 1.01500E-1,   0.02682,   57.40,   74.62,    0.00,  0.00000,  0.00000,  0.00000,  0.00000,1,1,   0.00,   1,1.0000
    68,    81,'1 ', 1.75000E-3, 2.02000E-2,   0.80800,  192.23,  249.90,    0.00,  0.00000,  0.00000,  0.00000,  0.00000,1,1,   0.00,   1,1.0000
    69,    70,'1 ', 3.00000E-2, 1.27000E-1,   0.12200,  104.08,  135.31,    0.00,  0.00000,  0.00000,  0.00000,  0.00000,1,1,   0.00,   1,1.0000
    69,    75,'1 ', 4.05000E-2, 1.22000E-1,   0.12400,  127.11,  165.24,    0.00,  0.00000,  0.00000,  0.00000,  0.00000,1,1,   0.00,   1,1.0000
    69,    77,'1 ', 3.09000E-2, 1.01000E-1,   0.10380,  178.85,  232.50,    0.00,  0.00000,  0.00000,  0.00000,  0.00000,1,1,   0.00,   1,1.0000
    70,    71,'1 ', 8.82000E-3, 3.55000E-2,   0.00878,   50.81,   66.05,    0.00,  0.00000,  0.00000,  0.00000,  0.00000,1,1,   0.00,   1,1.0000
    70,    74,'1 ', 4.01000E-2, 1.32300E-1,   0.03368,   27.13,   35.27,    0.00,  0.00000,  0.00000,  0.00000,  0.00000,1,1,   0.00,   1,1.0000
    70,    75,'1 ', 4.28000E-2, 1.41000E-1,   0.03600,   35.41,   46.03,    0.00,  0.00000,  0.00000,  0.00000,  0.00000,1,1,   0.00,   1,1.0000
    71,    72,'1 ', 4.46000E-2, 1.80000E-1,   0.04444,   48.18,   62.64,    0.00,  0.00000,  0.00000,  0.00000,  0.00000,1,1,   0.00,   1,1.0000
    71,    73,'1 ', 8.66000E-3, 4.54000E-2,   0.01178,   20.00,   26.00,    0.00,  0.00000,  0.00000,  0.00000,  0.00000,1,1,   0.00,   1,1.0000
    74,    75,'1 ', 1.23000E-2, 4.06000E-2,   0.01034,   31.07,   40.39,    0.00,  0.00000,  0.00000,  0.00000,  0.00000,1,1,   0.00,   1,1.0000
    75,    77,'1 ', 6.01000E-2, 1.99900E-1,   0.04978,   43.29,   56.28,    0.00,  0.00000,  0.00000,  0.00000,  0.00000,1,1,   0.00,   1,1.0000
    75,   118,'1 ', 1.45000E-2, 4.81000E-2,   0.01198,   72.85,   94.70,    0.00,  0.00000,  0.00000,  0.00000,  0.00000,1,1,   0.00,   1,1.0000
    76,    77,'1 ', 4.44000E-2, 1.48000E-1,   0.03680,   79.28,  103.06,    0.00,  0.00000,  0.00000,  0.00000,  0.00000,1,1,   0.00,   1,1.0000
    76,   118,'1 ', 1.64000E-2, 5.44000E-2,   0.01356,   34.39,   44.70,    0.00,  0.00000,  0.00000,  0.00000,  0.00000,1,1,   0.00,   1,1.0000
    77,    78,'1 ', 3.76000E-3, 1.24000E-2,   0.01264,   65.32,   84.92,    0.00,  0.00000,  0.00000,  0.00000,  0.00000,1,1,   0.00,   1,1.0000
    77,    80,'1 ', 2.94000E-2, 1.05000E-1,   0.02280,   40.12,   52.15,    0.00,  0.00000,  0.00000,  0.00000,  0.00000,1,1,   0.00,   1,1.0000
    77,    80,'2 ', 1.70000E-2, 4.85000E-2,   0.04720,   64.37,   83.68,    0.00,  0.00000,  0.00000,  0.00000,  0.00000,1,1,   0.00,   1,1.0000
    77,    82,'1 ', 2.98000E-2, 8.53000E-2,   0.08174,  174.49,  226.83,    0.00,  0.00000,  0.00000,  0.00000,  0.00000,1,1,   0.00,   1,1.0000
    78,    79,'1 ', 5.46000E-3, 2.44000E-2,   0.00648,   33.54,   43.60,    0.00,  0.00000,  0.00000,  0.00000,  0.00000,1,1,   0.00,   1,1.0000
    79,    80,'1 ', 1.56000E-2, 7.04000E-2,   0.01870,   56.78,   73.82,    0.00,  0.00000,  0.00000,  0.00000,  0.00000,1,1,   0.00,   1,1.0000
    80,    96,'1 ', 3.56000E-2, 1.82000E-1,   0.04940,   82.63,  107.41,    0.00,  0.00000,  0.00000,  0.00000,  0.00000,1,1,   0.00,   1,1.0000
    80,    97,'1 ', 1.83000E-2, 9.34000E-2,   0.02540,   97.11,  126.25,    0.00,  0.00000,  0.00000,  0.00000,  0.00000,1,1,   0.00,   1,1.0000
    80,    98,'1 ', 2.38000E-2, 1.08000E-1,   0.02860,   81.50,  105.95,    0.00,  0.00000,  0.00000,  0.00000,  0.00000,1,1,   0.00,   1,1.0000
    80,    99,'1 ', 4.54000E-2, 2.06000E-1,   0.05460,   86.87,  112.94,    0.00,  0.00000,  0.00000,  0.00000,  0.00000,1,1,   0.00,   1,1.0000
    82,    83,'1 ', 1.12000E-2, 3.66500E-2,   0.03796,  121.33,  157.73,    0.00,  0.00000,  0.00000,  0.00000,  0.00000,1,1,   0.00,   1,1.0000
    82,    96,'1 ', 1.62000E-2, 5.30000E-2,   0.05440,   91.15,  118.50,    0.00,  0.00000,  0.00000,  0.00000,  0.00000,1,1,   0.00,   1,1.0000
    83,    84,'1 ', 6.25000E-2, 1.32000E-1,   0.02580,   41.60,   54.09,    0.00,  0.00000,  0.00000,  0.00000,  0.00000,1,1,   0.00,   1,1.0000
    83,    85,'1 ', 4.30000E-2, 1.48000E-1,   0.03480,   56.05,   72.87,    0.00,  0.00000,  0.00000,  0.00000,  0.00000,1,1,   0.00,   1,1.0000
    84,    85,'1 ', 3.02000E-2, 6.41000E-2,   0.01234,   32.88,   42.75,    0.00,  0.00000,  0.00000,  0.00000,  0.00000,1,1,   0.00,   1,1.0000
    85,    86,'1 ', 3.50000E-2, 1.23000E-1,   0.02760,   20.00,   26.00,    0.00,  0.00000,  0.00000,  0.00000,  0.00000,1,1,   0.00,   1,1.0000
    85,    88,'1 ', 2.00000E-2, 1.02000E-1,   0.02760,   40.87,   53.14,    0.00,  0.00000,  0.00000,  0.00000,  0.00000,1,1,   0.00,   1,1.0000
    85,    89,'1 ', 2.39000E-2, 1.73000E-1,   0.04700,   22.35,   29.06,    0.00,  0.00000,  0.00000,  0.00000,  0.00000,1,1,   0.00,   1,1.0000
    88,    89,'1 ', 1.39000E-2, 7.12000E-2,   0.01934,   44.44,   57.77,    0.00,  0.00000,  0.00000,  0.00000,  0.00000,1,1,   0.00,   1,1.0000
    89,    90,'1 ', 2.38000E-2, 9.97000E-2,   0.10600,   59.04,   76.75,    0.00,  0.00000,  0.00000,  0.00000,  0.00000,1,1,   0.00,   1,1.0000
    89,    90,'2 ', 5.18000E-2, 1.88000E-1,   0.05280,   37.83,   49.17,    0.00,  0.00000,  0.00000,  0.00000,  0.00000,1,1,   0.00,   1,1.0000
    89,    92,'1 ', 3.93000E-2, 1.58100E-1,   0.04140,   38.83,   50.47,    0.00,  0.00000,  0.00000,  0.00000,  0.00000,1,1,   0.00,   1,1.0000
    89,    92,'2 ', 9.90000E-3, 5.05000E-2,   0.05480,  113.03,  146.94,    0.00,  0.00000,  0.00000,  0.00000,  0.00000,1,1,   0.00,   1,1.0000
    90,    91,'1 ', 2.54000E-2, 8.36000E-2,   0.02140,   38.55,   50.11,    0.00,  0.00000,  0.00000,  0.00000,  0.00000,1,1,   0.00,   1,1.0000
    91,    92,'1 ', 3.87000E-2, 1.27200E-1,   0.03268,   45.36,   58.97,    0.00,  0.00000,  0.00000,  0.00000,  0.00000,1,1,   0.00,   1,1.0000
    92,    93,'1 ', 2.58000E-2, 8.48000E-2,   0.02180,   46.42,   60.34,    0.00,  0.00000,  0.00000,  0.00000,  0.00000,1,1,   0.00,   1,1.0000
    92,    94,'1 ', 4.81000E-2, 1.58000E-1,   0.04060,   53.40,   69.41,    0.00,  0.00000,  0.00000,  0.00000,  0.00000,1,1,   0.00,   1,1.0000
    92,   100,'1 ', 6.48000E-2, 2.95000E-1,   0.04720,   36.52,   47.48,    0.00,  0.00000,  0.00000,  0.00000,  0.00000,1,1,   0.00,   1,1.0000
    92,   102,'1 ', 1.23000E-2, 5.59000E-2,   0.01464,   26.51,   34.47,    0.00,  0.00000,  0.00000,  0.00000,  0.00000,1,1,   0.00,   1,1.0000
    93,    94,'1 ', 2.23000E-2, 7.32000E-2,   0.01876,   57.95,   75.34,    0.00,  0.00000,  0.00000,  0.00000,  0.00000,1,1,   0.00,   1,1.0000
    94,    95,'1 ', 1.32000E-2, 4.34000E-2,   0.01110,   38.84,   50.49,    0.00,  0.00000,  0.00000,  0.00000,  0.00000,1,1,   0.00,   1,1.0000
    94,    96,'1 ', 2.69000E-2, 8.69000E-2,   0.02300,   55.10,   71.63,    0.00,  0.00000,  0.00000,  0.00000,  0.00000,1,1,   0.00,   1,1.0000
    94,   100,'1 ', 1.78000E-2, 5.80000E-2,   0.06040,   54.54,   70.91,    0.00,  0.00000,  0.00000,  0.00000,  0.00000,1,1,   0.00,   1,1.0000
    95,    96,'1 ', 1.71000E-2, 5.47000E-2,   0.01474,   80.71,  104.93,    0.00,  0.00000,  0.00000,  0.00000,  0.00000,1,1,   0.00,   1,1.0000
    96,    97,'1 ', 1.73000E-2, 8.85000E-2,   0.02400,   86.22,  112.09,    0.00,  0.00000,  0.00000,  0.00000,  0.00000,1,1,   0.00,   1,1.0000
    98,   100,'1 ', 3.97000E-2, 1.79000E-1,   0.04760,   58.85,   76.50,    0.00,  0.00000,  0.00000,  0.00000,  0.00000,1,1,   0.00,   1,1.0000
    99,   100,'1 ', 1.80000E-2, 8.13000E-2,   0.02160,   79.55,  103.41,    0.00,  0.00000,  0.00000,  0.00000,  0.00000,1,1,   0.00,   1,1.0000
   100,   101,'1 ', 2.77000E-2, 1.26200E-1,   0.03280,   58.52,   76.07,    0.00,  0.00000,  0.00000,  0.00000,  0.00000,1,1,   0.00,   1,1.0000
   100,   103,'1 ', 1.60000E-2, 5.25000E-2,   0.05360,   78.19,  101.65,    0.00,  0.00000,  0.00000,  0.00000,  0.00000,1,1,   0.00,   1,1.0000
   100,   104,'1 ', 4.51000E-2, 2.04000E-1,   0.05410,   60.25,   78.33,    0.00,  0.00000,  0.00000,  0.00000,  0.00000,1,1,   0.00,   1,1.0000
   100,   106,'1 ', 6.05000E-2, 2.29000E-1,   0.06200,   49.67,   64.57,    0.00,  0.00000,  0.00000,  0.00000,  0.00000,1,1,   0.00,   1,1.0000
   101,   102,'1 ', 2.46000E-2, 1.12000E-1,   0.02940,   32.41,   42.13,    0.00,  0.00000,  0.00000,  0.00000,  0.00000,1,1,   0.00,   1,1.0000
   103,   104,'1 ', 4.66000E-2, 1.58400E-1,   0.04070,   24.64,   32.03,    0.00,  0.00000,  0.00000,  0.00000,  0.00000,1,1,   0.00,   1,1.0000
   103,   105,'1 ', 5.35000E-2, 1.62500E-1,   0.04080,   33.59,   43.67,    0.00,  0.00000,  0.00000,  0.00000,  0.00000,1,1,   0.00,   1,1.0000
   103,   110,'1 ', 3.90600E-2, 1.81300E-1,   0.04610,   38.43,   49.97,    0.00,  0.00000,  0.00000,  0.00000,  0.00000,1,1,   0.00,   1,1.0000
   104,   105,'1 ', 9.94000E-3, 3.78000E-2,   0.00986,   34.43,   44.76,    0.00,  0.00000,  0.00000,  0.00000,  0.00000,1,1,   0.00,   1,1.0000
   105,   106,'1 ', 1.40000E-2, 5.47000E-2,   0.01434,   35.45,   46.09,    0.00,  0.00000,  0.00000,  0.00000,  0.00000,1,1,   0.00,   1,1.0000
   105,   107,'1 ', 5.30000E-2, 1.83000E-1,   0.04720,   26.40,   34.31,    0.00,  0.00000,  0.00000,  0.00000,  0.00000,1,1,   0.00,   1,1.0000
   105,   108,'1 ', 2.61000E-2, 7.03000E-2,   0.01844,   38.69,   50.30,    0.00,  0.00000,  0.00000,  0.00000,  0.00000,1,1,   0.00,   1,1.0000
   106,   107,'1 ', 5.30000E-2, 1.83000E-1,   0.04720,   20.00,   26.00,    0.00,  0.00000,  0.00000,  0.00000,  0.00000,1,1,   0.00,   1,1.0000
   108,   109,'1 ', 1.05000E-2, 2.88000E-2,   0.00760,   39.78,   51.71,    0.00,  0.00000,  0.00000,  0.00000,  0.00000,1,1,   0.00,   1,1.0000
   109,   110,'1 ', 2.78000E-2, 7.62000E-2,   0.02020,   20.00,   26.00,    0.00,  0.00000,  0.00000,  0.00000,  0.00000,1,1,   0.00,   1,1.0000
   110,   111,'1 ', 2.20000E-2, 7.55000E-2,   0.02000,   54.20,   70.46,    0.00,  0.00000,  0.00000,  0.00000,  0.00000,1,1,   0.00,   1,1.0000
   110,   112,'1 ', 2.47000E-2, 6.40000E-2,   0.06200,   48.98,   63.67,    0.00,  0.00000,  0.00000,  0.00000,  0.00000,1,1,   0.00,   1,1.0000
   114,   115,'1 ', 2.30000E-3, 1.04000E-2,   0.00276,   20.00,   26.00,    0.00,  0.00000,  0.00000,  0.00000,  0.00000,1,1,   0.00,   1,1.0000
0 / END OF BRANCH DATA, BEGIN TRANSFORMER DATA
     8,     5,     0,'1 ',1,1,1, 0.00000E+0, 0.00000E+0,2,'            ',1,   1,1.0000,   0,1.0000,   0,1.0000,   0,1.0000,'            '
 0.00000E+0, 2.67000E-2,   100.00
0.98500, 345.000,   0.000,   313.40,   407.41,     0.00,-1,      8, 1.50000, 0.51000, 1.50000, 0.51000, 159, 0, 0.00000, 0.00000,  0.000
1.00000, 138.000
    30,    17,     0,'1 ',1,1,1, 0.00000E+0, 0.00000E+0,2,'            ',1,   1,1.0000,   0,1.0000,   0,1.0000,   0,1.0000,'            '
 0.00000E+0, 3.88000E-2,   100.00
0.96000, 345.000,   0.000,   239.38,   311.19,     0.00,-1,     30, 1.50000, 0.51000, 1.50000, 0.51000, 159, 0, 0.00000, 0.00000,  0.000
1.00000, 138.000
    26,    25,     0,'1 ',1,1,1, 0.00000E+0, 0.00000E+0,2,'            ',1,   1,1.0000,   0,1.0000,   0,1.0000,   0,1.0000,'            '
 0.00000E+0, 3.82000E-2,   100.00
0.96000, 345.000,   0.000,   236.91,   307.98,     0.00,-1,     26, 1.50000, 0.51000, 1.50000, 0.51000, 159, 0, 0.00000, 0.00000,  0.000
1.00000, 138.000
    38,    37,     0,'1 ',1,1,1, 0.00000E+0, 0.00000E+0,2,'            ',1,   1,1.0000,   0,1.0000,   0,1.0000,   0,1.0000,'            '
 0.00000E+0, 3.75000E-2,   100.00
0.93500, 345.000,   0.000,   263.17,   342.12,     0.00,-1,     38, 1.50000, 0.51000, 1.50000, 0.51000, 159, 0, 0.00000, 0.00000,  0.000
1.00000, 138.000
    63,    59,     0,'1 ',1,1,1, 0.00000E+0, 0.00000E+0,2,'            ',1,   1,1.0000,   0,1.0000,   0,1.0000,   0,1.0000,'            '
 0.00000E+0, 3.86000E-2,   100.00
0.96000, 345.000,   0.000,   154.22,   200.49,     0.00,-1,     63, 1.50000, 0.51000, 1.50000, 0.51000, 159, 0, 0.00000, 0.00000,  0.000
1.00000, 138.000
    64,    61,     0,'1 ',1,1,1, 0.00000E+0, 0.00000E+0,2,'            ',1,   1,1.0000,   0,1.0000,   0,1.0000,   0,1.0000,'            '
 0.00000E+0, 2.68000E-2,   100.00
0.98500, 345.000,   0.000,    85.01,   110.52,     0.00,-1,     64, 1.50000, 0.51000, 1.50000, 0.51000, 159, 0, 0.00000, 0.00000,  0.000
1.00000, 138.000
    65,    66,     0,'1 ',1,1,1, 0.00000E+0, 0.00000E+0,2,'            ',1,   1,1.0000,   0,1.0000,   0,1.0000,   0,1.0000,'            '
 0.00000E+0, 3.70000E-2,   100.00
0.93500, 345.000,   0.000,   130.22,   169.28,     0.00,-1,     65, 1.50000, 0.51000, 1.50000, 0.51000, 159, 0, 0.00000, 0.00000,  0.000
1.00000, 138.000
    68,    69,     0,'1 ',1,1,1, 0.00000E+0, 0.00000E+0,2,'            ',1,   1,1.0000,   0,1.0000,   0,1.0000,   0,1.0000,'            '
 0.00000E+0, 3.70000E-2,   100.00
0.93500, 345.000,   0.000,   219.09,   284.81,     0.00,-1,     68, 1.50000, 0.51000, 1.50000, 0.51000, 159, 0, 0.00000, 0.00000,  0.000
1.00000, 138.000
    68,   116,     0,'1 ',1,1,1, 0.00000E+0, 1.64000E-1,2,'            ',1,   1,1.0000,   0,1.0000,   0,1.0000,   0,1.0000,'            '
 3.40000E-4, 4.05000E-3,   100.00
1.00000, 345.000,   0.000,   138.97,   180.66,     0.00,-1,     68, 1.10000, 0.90000, 1.50000, 0.50000, 159, 0, 0.00000, 0.00000,  0.000
1.00000, 138.000
    81,    80,     0,'1 ',1,1,1, 0.00000E+0, 0.00000E+0,2,'            ',1,   1,1.0000,   0,1.0000,   0,1.0000,   0,1.0000,'            '
 0.00000E+0, 3.70000E-2,   100.00
0.93500, 345.000,   0.000,   216.90,   281.98,     0.00,-1,     81, 1.50000, 0.51000, 1.50000, 0.51000, 159, 0, 0.00000, 0.00000,  0.000
1.00000, 138.000
    86,    87,     0,'1 ',1,1,1, 0.00000E+0, 4.45000E-2,2,'            ',1,   1,1.0000,   0,1.0000,   0,1.0000,   0,1.0000,'            '
 2.82800E-2, 2.07400E-1,   100.00
1.00000, 138.000,   0.000,    20.00,    26.00,     0.00,-1,     86, 1.10000, 0.90000, 1.50000, 0.50000, 159, 0, 0.00000, 0.00000,  0.000
1.00000, 161.000
0 / END OF TRANSFORMER DATA, BEGIN AREA DATA
   1,     0,     0.000,     1.000,'1           '
0 / END OF AREA DATA, BEGIN TWO-TERMINAL DC DATA
0 / END OF TWO-TERMINAL DC DATA, BEGIN VSC DC LINE DATA
0 / END OF VSC DC LINE DATA, BEGIN IMPEDANCE CORRECTION DATA
0 / END OF IMPEDANCE CORRECTION DATA, BEGIN MULTI-TERMINAL DC DATA
0 / END OF MULTI-TERMINAL DC DATA, BEGIN MULTI-SECTION LINE DATA
0 / END OF MULTI-SECTION LINE DATA, BEGIN ZONE DATA
   1,'1           '
0 / END OF ZONE DATA, BEGIN INTER-AREA TRANSFER DATA
...